results/time_series/baseline_pf/spd_s_4w/year=2023_stride=4_K=17520/tables/worst_timestep_bus_voltages_k=41.csv
bus,va,vb,vc,vmin,vmax
225,0.9743262854955751,0.9938511557847468,1.0108999615567242,0.9743262854955751,1.0108999615567242
219,0.9751416607544805,0.9938588350977866,1.0109089388645414,0.9751416607544805,1.0109089388645414
32,0.9751755554582366,0.9938511557847468,1.0108999615567242,0.9751755554582366,1.0108999615567242
96,0.9753414758156552,0.9938511557847468,1.0108999615567242,0.9753414758156552,1.0108999615567242
6,0.9754509943510984,0.9938511557847468,1.0108999615567242,0.9754509943510984,1.0108999615567242
82,0.9754509943510984,0.9938511557847468,1.0108999615567242,0.9754509943510984,1.0108999615567242
71,0.9757500320492808,0.9938511557847468,1.0108999615567242,0.9757500320492808,1.0108999615567242
35,0.9759947210420006,0.9923085621771287,1.0108999615567242,0.9759947210420006,1.0108999615567242
80,0.976110625433106,0.9922376739285335,1.0108999615567242,0.976110625433106,1.0108999615567242
231,0.9763431685356856,0.9923550564507723,1.0108999615567242,0.9763431685356856,1.0108999615567242
137,0.9763452411265326,0.9923085621771287,1.0108999615567242,0.9763452411265326,1.0108999615567242
208,0.9763452411265326,0.9923085621771287,1.0108999615567242,0.9763452411265326,1.0108999615567242
103,0.9763767780330628,0.9922376739285335,1.0108999615567242,0.9763767780330628,1.0108999615567242
115,0.9763767780330628,0.9919472463132318,1.0108999615567242,0.9763767780330628,1.0108999615567242
54,0.9763998865828827,0.9922604135725549,1.0108999615567242,0.9763998865828827,1.0108999615567242
41,0.9763998865828827,0.9922604135725549,1.0108999615567242,0.9763998865828827,1.0108999615567242
252,0.9764297712831314,0.992294771953977,1.0109035784710625,0.9764297712831314,1.0109035784710625
56,0.9764488163148943,0.9923085621771287,1.0108999615567242,0.9764488163148943,1.0108999615567242
156,0.9765513369560697,0.9938511557847468,1.0108999615567242,0.9765513369560697,1.0108999615567242
20,0.976590552417836,0.9923550564507723,1.0108999615567242,0.976590552417836,1.0108999615567242
11,0.9768275200623837,0.9938511557847468,1.0108999615567242,0.9768275200623837,1.0108999615567242
159,0.9773087517175696,0.9925317493420713,1.0108999615567242,0.9773087517175696,1.0108999615567242
83,0.9773087517175696,0.9925317493420713,1.0108999615567242,0.9773087517175696,1.0108999615567242
91,0.9773549122307764,0.9926305079289311,1.0108999615567242,0.9773549122307764,1.0108999615567242
244,0.9777102081520559,0.9926305079289311,1.0108999615567242,0.9777102081520559,1.0108999615567242
30,0.9777171347093623,0.9926033017367345,1.010880228730606,0.9777171347093623,1.010880228730606
150,0.9778953226717713,0.9938511557847468,1.0108999615567242,0.9778953226717713,1.0108999615567242
3,0.9780262707259189,0.9928759869303962,1.0108999615567242,0.9780262707259189,1.0108999615567242
207,0.978137026803223,0.9938511557847468,1.0108999615567242,0.978137026803223,1.0108999615567242
216,0.9783339823436586,0.9928759869303962,1.0108999615567242,0.9783339823436586,1.0108999615567242
118,0.9783967054099785,0.9892383628781867,1.0119236095018318,0.9783967054099785,1.0119236095018318
5,0.9784074294259899,0.9889408933518312,1.0119236095018318,0.9784074294259899,1.0119236095018318
129,0.9784223011578231,0.9892383628781867,1.0119236095018318,0.9784223011578231,1.0119236095018318
10,0.9785087414353716,0.9889408933518312,1.0119236095018318,0.9785087414353716,1.0119236095018318
62,0.9785087414353716,0.9889408933518312,1.0119236095018318,0.9785087414353716,1.0119236095018318
144,0.9785348085174705,0.9889408933518312,1.0119236095018318,0.9785348085174705,1.0119236095018318
149,0.9785481215434723,0.9889408933518312,1.0119236095018318,0.9785481215434723,1.0119236095018318
97,0.9785481215434723,0.9888027618663141,1.0119236095018318,0.9785481215434723,1.0119236095018318
195,0.9785922279658578,0.988984535629087,1.0119236095018318,0.9785922279658578,1.0119236095018318
130,0.9785922279658578,0.9888027014393822,1.0119236095018318,0.9785922279658578,1.0119236095018318
245,0.9785922279658578,0.9888105068686357,1.0119236095018318,0.9785922279658578,1.0119236095018318
175,0.97867773602842,0.9892383628781867,1.0119236095018318,0.97867773602842,1.0119236095018318
133,0.97867773602842,0.988869696614298,1.0119236095018318,0.97867773602842,1.0119236095018318
9,0.9787299010874606,0.9896517849481412,1.0119236095018318,0.9787299010874606,1.0119236095018318
42,0.978955464268695,0.9930798504558899,1.0108999615567242,0.978955464268695,1.0108999615567242
185,0.978955464268695,0.9929127388165465,1.0108999615567242,0.978955464268695,1.0108999615567242
22,0.978955464268695,0.9928002950058753,1.0108999615567242,0.978955464268695,1.0108999615567242
86,0.9789910897942027,0.9896517849481412,1.0119236095018318,0.9789910897942027,1.0119236095018318
170,0.9790493190418263,0.9897094097301712,1.0119236095018318,0.9790493190418263,1.0119236095018318
236,0.9790493190418263,0.9895638463708868,1.0119236095018318,0.9790493190418263,1.0119236095018318
237,0.9791357855467407,0.9900119506808246,1.0119236095018318,0.9791357855467407,1.0119236095018318
40,0.9792847517836911,0.9900052975459265,1.0119253554564178,0.9792847517836911,1.0119253554564178
191,0.9792939327404029,0.9900119506808246,1.0119236095018318,0.9792939327404029,1.0119236095018318
258,0.9794761379061343,0.9933359697644526,1.0108999615567242,0.9794761379061343,1.0108999615567242
239,0.9794761379061343,0.9933359697644526,1.0108999615567242,0.9794761379061343,1.0108999615567242
4,0.9794761379061343,0.9933359697644526,1.0108999615567242,0.9794761379061343,1.0108999615567242
193,0.9795316914393893,0.9932829549129196,1.0108999615567242,0.9795316914393893,1.0108999615567242
94,0.9795316914393893,0.9938511557847468,1.0108999615567242,0.9795316914393893,1.0108999615567242
14,0.9797419341314354,0.9903814505213021,1.0119236095018318,0.9797419341314354,1.0119236095018318
15,0.9797419341314354,0.9899821411029793,1.0119236095018318,0.9797419341314354,1.0119236095018318
246,0.9797419341314354,0.9902619649438176,1.0119236095018318,0.9797419341314354,1.0119236095018318
178,0.9799513006545686,0.9935696901493345,1.0108999615567242,0.9799513006545686,1.0108999615567242
141,0.9802568590945839,0.9916388900872127,1.0119236095018318,0.9802568590945839,1.0119236095018318
256,0.9803665499665183,0.9914307719816495,1.0119236095018318,0.9803665499665183,1.0119236095018318
211,0.980543951695821,0.9916388900872127,1.0119236095018318,0.980543951695821,1.0119236095018318
17,0.9806510481717989,0.9913603122155956,1.0119236095018318,0.9806510481717989,1.0119236095018318
64,0.9806510481717989,0.9914307719816495,1.0119236095018318,0.9806510481717989,1.0119236095018318
138,0.9806510481717989,0.991175078476134,1.0119236095018318,0.9806510481717989,1.0119236095018318
117,0.9808162943237262,0.9920213190868908,1.0119236095018318,0.9808162943237262,1.0119236095018318
127,0.9808351109921475,0.9916388900872127,1.0119236095018318,0.9808351109921475,1.0119236095018318
135,0.981049159005028,0.9920213190868908,1.0119236095018318,0.981049159005028,1.0119236095018318
104,0.9810930882712962,0.9941578286434191,1.0108999615567242,0.9810930882712962,1.0108999615567242
171,0.9811101084748471,0.9941396297067837,1.0108999615567242,0.9811101084748471,1.0108999615567242
212,0.9811665052735833,0.9920213190868908,1.0119236095018318,0.9811665052735833,1.0119236095018318
253,0.9811830313065919,0.9941754932528644,1.0108999615567242,0.9811830313065919,1.0108999615567242
263,0.9811830313065919,0.9941754932528644,1.0108999615567242,0.9811830313065919,1.0108999615567242
259,0.9812215744628193,0.9920213190868908,1.0119236095018318,0.9812215744628193,1.0119236095018318
119,0.981684400953533,0.9928308120534917,1.0119236095018318,0.981684400953533,1.0119236095018318
36,0.9817008777738956,0.9943221284224719,1.010832499944835,0.9817008777738956,1.010832499944835
222,0.9820757968268305,0.9928308120534917,1.0119236095018318,0.9820757968268305,1.0119236095018318
25,0.9822436853397332,0.9928308120534917,1.0119236095018318,0.9822436853397332,1.0119236095018318
28,0.982493124637457,0.9930681168750737,1.0119236095018318,0.982493124637457,1.0119236095018318
45,0.9826030828036112,0.9930681168750737,1.0119236095018318,0.9826030828036112,1.0119236095018318
199,0.9828042475327264,0.9933499845246753,1.0119236095018318,0.9828042475327264,1.0119236095018318
243,0.9828903697753255,0.9933499845246753,1.0119236095018318,0.9828903697753255,1.0119236095018318
110,0.9830654467478874,0.9933499845246753,1.0119236095018318,0.9830654467478874,1.0119236095018318
26,0.9846623111162671,0.9941939688397163,1.0119236095018318,0.9846623111162671,1.0119236095018318
205,0.9864560605319888,0.9951418660167016,1.0119236095018318,0.9864560605319888,1.0119236095018318
89,0.9865017683147378,0.9951683274562682,1.011915102071436,0.9865017683147378,1.011915102071436
113,0.9867945195156155,0.9956184022712125,1.0117704383145023,0.9867945195156155,1.0117704383145023
126,0.9868119970257481,0.9955115324266006,1.0118047823312997,0.9868119970257481,1.0118047823312997
52,0.9868996270607687,0.9953986697400411,1.0118410564547926,0.9868996270607687,1.0118410564547926
238,0.9868996270607687,0.9953986697400411,1.0118410564547926,0.9868996270607687,1.0118410564547926
188,0.9870945562920193,0.9955115324266006,1.0118047823312997,0.9870945562920193,1.0118047823312997
241,0.9873509076382448,0.9956184022712125,1.0117704383145023,0.9873509076382448,1.0117704383145023
134,0.9876751500479537,0.9966435568820422,1.010832499944835,0.9876751500479537,1.010832499944835
46,0.9880330763543049,0.9960143618033939,1.0116432254708847,0.9880330763543049,1.0116432254708847
93,0.9881954649490238,0.9966435568820422,1.010832499944835,0.9881954649490238,1.010832499944835
84,0.9885665393562122,0.9960143618033939,1.0116432254708847,0.9885665393562122,1.0116432254708847
174,0.9898956376462479,0.997039708096694,1.0120634325166944,0.9898956376462479,1.0120634325166944
155,0.9900269746182885,0.997039708096694,1.0120634325166944,0.9900269746182885,1.0120634325166944
157,0.9900818618455214,0.997039708096694,1.0120634325166944,0.9900818618455214,1.0120634325166944
186,0.9900818618455214,0.997039708096694,1.0120634325166944,0.9900818618455214,1.0120634325166944
167,0.9901193622821114,0.997039708096694,1.0120634325166944,0.9901193622821114,1.0120634325166944
38,0.9901398374293827,0.9964350110370045,1.011508138785282,0.9901398374293827,1.011508138785282
74,0.9901398374293827,0.9959940119230636,1.011508138785282,0.9901398374293827,1.011508138785282
201,0.9902719361696368,0.9975309972381162,1.010832499944835,0.9902719361696368,1.010832499944835
124,0.9905403465025466,0.996613302751174,1.0114737571761179,0.9905403465025466,1.0114737571761179
23,0.9906759673776933,0.9966857715600698,1.0114856371723564,0.9906759673776933,1.0114856371723564
81,0.9908608717577785,0.9967680832189892,1.011469765720991,0.9908608717577785,1.011469765720991
194,0.9908608717577785,0.9967680832189892,1.011469765720991,0.9908608717577785,1.011469765720991
153,0.9909017736655895,0.9975309972381162,1.010832499944835,0.9909017736655895,1.010832499944835
7,0.9909934048562674,0.9970520138059644,1.0114150233378674,0.9909934048562674,1.0114150233378674
262,0.9914986807733264,0.9970520138059644,1.0114150233378674,0.9914986807733264,1.0114150233378674
227,0.9915087734089866,0.9977148456651509,1.010832499944835,0.9915087734089866,1.010832499944835
261,0.9915087734089866,0.9977148456651509,1.010832499944835,0.9915087734089866,1.010832499944835
90,0.9935961087190301,0.9976997819188693,1.010832499944835,0.9935961087190301,1.010832499944835
114,0.9935961087190301,0.9983469425787025,1.010832499944835,0.9935961087190301,1.010832499944835
251,0.9936932242065324,0.9978974213752091,1.011255138874378,0.9936932242065324,1.011255138874378
31,0.9936932242065324,0.997417418285616,1.011255138874378,0.9936932242065324,1.011255138874378
21,0.995255714201187,1.0007626200992286,1.010832499944835,0.995255714201187,1.010832499944835
76,0.9953645021890142,0.9990837056122409,1.0110935537925168,0.9953645021890142,1.0110935537925168
13,0.9953879485141988,0.9990242315967591,1.010832499944835,0.9953879485141988,1.010832499944835
61,0.9957067786461341,1.0007626200992286,1.010832499944835,0.9957067786461341,1.010832499944835
192,0.9957764792788794,1.0007626200992286,1.010832499944835,0.9957764792788794,1.010832499944835
177,0.9957764792788794,1.0007626200992286,1.010832499944835,0.9957764792788794,1.010832499944835
257,0.9957764792788794,1.0007626200992286,1.010832499944835,0.9957764792788794,1.010832499944835
180,0.9957764792788794,1.0007626200992286,1.010832499944835,0.9957764792788794,1.010832499944835
265,0.9957764792788794,1.0007626200992286,1.010832499944835,0.9957764792788794,1.010832499944835
148,0.9957764792788794,1.0007626200992286,1.010832499944835,0.9957764792788794,1.010832499944835
18,0.9957764792788794,1.0007626200992286,1.010832499944835,0.9957764792788794,1.010832499944835
102,0.9958155295290146,1.0007626200992286,1.010832499944835,0.9958155295290146,1.010832499944835
121,0.9958155295290146,1.0007626200992286,1.010832499944835,0.9958155295290146,1.010832499944835
255,0.9958883105139469,0.9990710724284206,1.0110952574246665,0.9958883105139469,1.0110952574246665
125,0.9959116870696489,0.9990837056122409,1.0110935537925168,0.9959116870696489,1.0110935537925168
111,0.9959171957923925,1.0007626200992286,1.010832499944835,0.9959171957923925,1.010832499944835
16,0.9960490925993788,1.0007626200992286,1.010832499944835,0.9960490925993788,1.010832499944835
228,0.9960622082086419,1.0007626200992286,1.010832499944835,0.9960622082086419,1.010832499944835
250,0.9961147389880842,0.9992989062262563,1.010832499944835,0.9961147389880842,1.010832499944835
209,0.9961147389880842,0.9986435605751558,1.010832499944835,0.9961147389880842,1.010832499944835
75,0.9970715536329737,0.9961337925885547,1.010726331136288,0.9961337925885547,1.010726331136288
206,0.9970715536329737,0.9961734261134796,1.010726331136288,0.9961734261134796,1.010726331136288
77,0.996417188118521,1.0007626200992286,1.010832499944835,0.996417188118521,1.010832499944835
197,0.9970715536329737,0.9964467219263877,1.010726331136288,0.9964467219263877,1.010726331136288
47,0.9965994328614827,0.9979277425138625,1.010726331136288,0.9965994328614827,1.010726331136288
202,0.9966087412428312,1.0007626200992286,1.010832499944835,0.9966087412428312,1.010832499944835
143,0.9970715536329737,0.9966893022389066,1.010726331136288,0.9966893022389066,1.010726331136288
131,0.9970715536329737,0.9966893022389066,1.010726331136288,0.9966893022389066,1.010726331136288
215,0.9966921194018368,0.9976876477299155,1.010726331136288,0.9966921194018368,1.010726331136288
224,0.9970715536329737,0.9968564916834606,1.010726331136288,0.9968564916834606,1.010726331136288
112,0.9968897421276075,0.9979277425138625,1.010726331136288,0.9968897421276075,1.010726331136288
123,0.9968897421276075,0.9979277425138625,1.010726331136288,0.9968897421276075,1.010726331136288
12,0.9969015608534901,0.9979277425138625,1.010726331136288,0.9969015608534901,1.010726331136288
67,0.9969015608534901,0.9979277425138625,1.010726331136288,0.9969015608534901,1.010726331136288
106,0.9979104651803444,0.9969359107142945,1.0106575475161774,0.9969359107142945,1.0106575475161774
142,0.9979062753844054,0.9969526175467426,1.0106696704993916,0.9969526175467426,1.0106696704993916
158,0.9979062753844054,0.9969526175467426,1.0106696704993916,0.9969526175467426,1.0106696704993916
107,0.9969692559398794,1.0007626200992286,1.010832499944835,0.9969692559398794,1.010832499944835
147,0.9978903724205528,0.9970160448946818,1.010715691569104,0.9970160448946818,1.010715691569104
183,0.9978860605394615,0.9970332369571782,1.0107281669491888,0.9970332369571782,1.0107281669491888
181,0.9978839455106364,0.9970416716939232,1.0107342871315088,0.9970416716939232,1.0107342871315088
27,0.9978839455106364,0.9970416716939232,1.0107342871315088,0.9970416716939232,1.0107342871315088
68,0.9970715536329737,0.9976876477299155,1.010726331136288,0.9970715536329737,1.010726331136288
65,0.9970773557758912,0.9979277425138625,1.010726331136288,0.9970773557758912,1.010726331136288
66,0.9970773557758912,0.9976696936456094,1.010726331136288,0.9970773557758912,1.010726331136288
51,0.997375136422881,0.9971441932716699,1.0108086710500204,0.9971441932716699,1.0108086710500204
49,0.9977159969926912,0.9971441932716699,1.0108086710500204,0.9971441932716699,1.0108086710500204
116,0.9978582425841509,0.9971441932716699,1.0108086710500204,0.9971441932716699,1.0108086710500204
249,0.9971883368888217,1.0007626200992286,1.010832499944835,0.9971883368888217,1.010832499944835
2,0.9971883368888217,1.0007626200992286,1.010832499944835,0.9971883368888217,1.010832499944835
179,0.9978676979062993,0.9971959100489398,1.010832499944835,0.9971959100489398,1.010832499944835
200,0.9972154143921962,0.9980656468394057,1.010726331136288,0.9972154143921962,1.010726331136288
220,0.9972154143921962,0.9980656468394057,1.010726331136288,0.9972154143921962,1.010726331136288
232,0.9973053038292152,0.9981554358148044,1.010726331136288,0.9973053038292152,1.010726331136288
100,0.9973850925376453,1.0007626200992286,1.010832499944835,0.9973850925376453,1.010832499944835
254,0.9975208299415387,0.9984787487061476,1.010726331136288,0.9975208299415387,1.010726331136288
160,0.9978516409596971,1.0007626200992286,1.010832499944835,0.9978516409596971,1.010832499944835
73,0.9982390866242441,0.9978582594968581,1.010832499944835,0.9978582594968581,1.010832499944835
60,0.9978936778211893,0.9990380214403877,1.010726331136288,0.9978936778211893,1.010726331136288
164,0.9978980492737398,0.9990536219421029,1.0107325933183995,0.9978980492737398,1.0107325933183995
198,0.9978992939657184,0.9990580637717841,1.0107343763027132,0.9978992939657184,1.0107343763027132
48,0.9982390866242441,0.997939029178044,1.010832499944835,0.997939029178044,1.010832499944835
87,0.997954836637011,0.9997448715611197,1.0107343763027132,0.997954836637011,1.0107343763027132
140,0.9979729579563588,1.0007626200992286,1.010832499944835,0.9979729579563588,1.010832499944835
43,0.9980053506313591,0.999217162673518,1.0107343763027132,0.9980053506313591,1.0107343763027132
242,0.9980053506313591,0.999217162673518,1.0107343763027132,0.9980053506313591,1.0107343763027132
210,0.9980053506313591,0.999217162673518,1.0107343763027132,0.9980053506313591,1.0107343763027132
187,0.998349039556168,0.9982689376004733,1.010832499944835,0.9982689376004733,1.010832499944835
247,0.998357117814535,0.9997448715611197,1.0107343763027132,0.998357117814535,1.0107343763027132
173,0.9984875003135542,0.9986843914103841,1.010832499944835,0.9984875003135542,1.010832499944835
240,0.9984875003135542,0.9986843914103841,1.010832499944835,0.9984875003135542,1.010832499944835
230,0.9985958581764799,1.0002343672029859,1.0107343763027132,0.9985958581764799,1.0107343763027132
146,0.9988463017141547,1.0002343672029859,1.0107343763027132,0.9988463017141547,1.0107343763027132
139,0.9989381965086283,0.999910187219862,1.010832499944835,0.9989381965086283,1.010832499944835
221,0.9989381965086283,1.0005778809003711,1.010832499944835,0.9989381965086283,1.010832499944835
57,0.9989444327456038,1.0000554961171437,1.010832499944835,0.9989444327456038,1.010832499944835
217,0.9989444327456038,1.0000554961171437,1.010832499944835,0.9989444327456038,1.010832499944835
79,0.9989444327456038,1.0000554961171437,1.010832499944835,0.9989444327456038,1.010832499944835
53,0.9990325825213381,1.0007626200992286,1.010832499944835,0.9990325825213381,1.010832499944835
50,0.9991227283082106,1.0007626200992286,1.010832499944835,0.9991227283082106,1.010832499944835
78,0.9991391029236727,1.0006396707703638,1.010832499944835,0.9991391029236727,1.010832499944835
72,0.9991457069099677,1.000776126418948,1.0108653628506918,0.9991457069099677,1.0108653628506918
169,0.9991712003987637,1.0007008860974935,1.010832499944835,0.9991712003987637,1.010832499944835
99,0.9991712003987637,1.0007008860974935,1.010832499944835,0.9991712003987637,1.010832499944835
248,0.9991800736810148,1.0007626200992286,1.010832499944835,0.9991800736810148,1.010832499944835
108,0.9995088230765965,1.0006103194896692,1.0108653628506918,0.9995088230765965,1.0108653628506918
234,0.9995088230765965,1.000776126418948,1.0108653628506918,0.9995088230765965,1.0108653628506918
128,0.999616824124888,1.0008133758473425,1.0107382078651037,0.999616824124888,1.0107382078651037
203,0.9996363979952456,1.0008275658925065,1.0107343763027132,0.9996363979952456,1.0107343763027132
58,0.9997631051521686,1.001112067927592,1.010832499944835,0.9997631051521686,1.010832499944835
196,0.9999483250702278,1.0010052689531064,1.0108407898090095,0.9999483250702278,1.0108407898090095
132,0.9999483250702278,1.0010052689531064,1.0108407898090095,0.9999483250702278,1.0108407898090095
165,0.9999744170738611,1.00133949514664,1.0107343763027132,0.9999744170738611,1.0107343763027132
213,1.0004883323039486,1.00133949514664,1.0107343763027132,1.0004883323039486,1.0107343763027132
105,1.0006430641219421,1.0014170067245585,1.0107343763027132,1.0006430641219421,1.0107343763027132
136,1.0006430641219421,1.0014170067245585,1.0107343763027132,1.0006430641219421,1.0107343763027132
88,1.0008128020798255,1.0018196917013271,1.010832499944835,1.0008128020798255,1.010832499944835
176,1.0009437143575661,1.0018196917013271,1.010832499944835,1.0009437143575661,1.010832499944835
98,1.0011505475029097,1.002256427999768,1.010832499944835,1.0011505475029097,1.010832499944835
44,1.0012576785638976,1.0021287105863113,1.010832499944835,1.0012576785638976,1.010832499944835
172,1.0018174139519052,1.002256427999768,1.010832499944835,1.0018174139519052,1.010832499944835
29,1.0018174139519052,1.002256427999768,1.010832499944835,1.0018174139519052,1.010832499944835
154,1.0018762186828707,1.0021287105863113,1.010832499944835,1.0018762186828707,1.010832499944835
85,1.0020758005811448,1.002114467123477,1.010721864091604,1.0020758005811448,1.010721864091604
163,1.0022320468057613,1.0022129248998595,1.0107343763027132,1.0022129248998595,1.0107343763027132
63,1.0022904595962063,1.0022431187281817,1.0107464641471295,1.0022431187281817,1.0107464641471295
233,1.0023022254516334,1.0022528172729077,1.010744845713486,1.0022528172729077,1.010744845713486
24,1.0023880014447701,1.002301574651166,1.010757641698345,1.002301574651166,1.010757641698345
226,1.002432723100189,1.0027242769690121,1.0107887154276936,1.002432723100189,1.0107887154276936
8,1.0026381689645743,1.0024482575530766,1.0107899273531118,1.0024482575530766,1.0107899273531118
70,1.002791584174053,1.0026740724796221,1.010832499944835,1.0026740724796221,1.010832499944835
184,1.0027047168999104,1.0027242769690121,1.0107887154276936,1.0027047168999104,1.0107887154276936
166,1.0027047168999104,1.0027242769690121,1.0107887154276936,1.0027047168999104,1.0107887154276936
120,1.0029068937799905,1.0027242769690121,1.0107887154276936,1.0027242769690121,1.0107887154276936
235,1.0029732591833946,1.0027242769690121,1.0107887154276936,1.0027242769690121,1.0107887154276936
95,1.0029068937799905,1.0027242769690121,1.0107887154276936,1.0027242769690121,1.0107887154276936
264,1.003233943441172,1.0027975280798715,1.0108668034321602,1.0027975280798715,1.0108668034321602
182,1.003460348320946,1.0029607382542527,1.010832499944835,1.0029607382542527,1.010832499944835
69,1.003460348320946,1.0029607382542527,1.010832499944835,1.0029607382542527,1.010832499944835
260,1.0035083191835488,1.0029812987664906,1.010832499944835,1.0029812987664906,1.010832499944835
55,1.003736014351238,1.0030329826928024,1.0108514629502456,1.0030329826928024,1.0108514629502456
34,1.003761107917042,1.0030549935651456,1.010832499944835,1.0030549935651456,1.010832499944835
223,1.0037367963717398,1.0030655672839799,1.0108138394387587,1.0030655672839799,1.0108138394387587
101,1.004024799873403,1.003202651808926,1.010832499944835,1.003202651808926,1.010832499944835
92,1.004315162270216,1.0033270673389332,1.0108325199490826,1.0033270673389332,1.0108325199490826
162,1.0043151871593856,1.0033270827291083,1.0108324820843784,1.0033270827291083,1.0108324820843784
37,1.0043153365709345,1.0033271480285386,1.010832499944835,1.0033271480285386,1.010832499944835
122,1.004315569326185,1.0033272635922528,1.0108325072203248,1.0033272635922528,1.0108325072203248
59,1.004315551011032,1.0033272682337175,1.010832499944835,1.0033272682337175,1.010832499944835
151,1.0043155930496215,1.003327276182176,1.0108324938752273,1.003327276182176,1.0108324938752273
161,1.0043156156020339,1.0033272859031606,1.010832505773266,1.0033272859031606,1.010832505773266
229,1.004315642863432,1.0033272999241447,1.010832495322286,1.0033272999241447,1.010832495322286
145,1.0043156586345852,1.003327305619839,1.010832499944835,1.003327305619839,1.010832499944835
39,1.0043157054802154,1.0033273285422122,1.010832499944835,1.0033273285422122,1.010832499944835
214,1.0043157219652554,1.0033273414794015,1.010832499944835,1.0033273414794015,1.010832499944835
168,1.0043157448297233,1.0033273512757286,1.010832499944835,1.0033273512757286,1.010832499944835
1,1.0043158019908955,1.003327375766547,1.010832499944835,1.003327375766547,1.010832499944835
19,1.0043158019908955,1.003327375766547,1.010832499944835,1.003327375766547,1.010832499944835
109,1.0043158019908955,1.003327375766547,1.010832499944835,1.003327375766547,1.010832499944835
218,1.0043158019908955,1.003327375766547,1.010832499944835,1.003327375766547,1.010832499944835
152,1.0043158019908955,1.003327375766547,1.010832499944835,1.003327375766547,1.010832499944835
33,1.0043158019908955,1.003327375766547,1.010832499944835,1.003327375766547,1.010832499944835
189,1.0043158019908955,1.003327375766547,1.010832499944835,1.003327375766547,1.010832499944835
267,1.003327375766547,1.010832499944835,1.0043158019908955,1.003327375766547,1.010832499944835
266,1.0041612845842685,1.010832499944835,1.006066195881065,1.0041612845842685,1.010832499944835
268,1.0044553915073406,1.010832499944835,1.0072791714604532,1.0044553915073406,1.010832499944835
269,1.0052890563694492,1.010832499944835,1.009027461311781,1.0052890563694492,1.010832499944835
204,1.005932845029963,1.0077434266585432,1.0114727602850326,1.005932845029963,1.0114727602850326
190,1.0099999998771738,1.0099999999322693,1.010000000043604,1.0099999998771738,1.010000000043604
270,1.01,1.01,1.01,1.01,1.01
